Version 4.1
SHEET 1 2656 1360
WIRE 192 384 144 384
WIRE 1216 384 1136 384
WIRE 1584 384 1504 384
WIRE 688 432 432 432
WIRE 192 464 144 464
WIRE 1584 464 1504 464
WIRE 1216 480 1136 480
WIRE 1584 544 1504 544
WIRE 1216 576 1136 576
WIRE 192 592 144 592
WIRE 1584 608 1504 608
WIRE 688 624 432 624
WIRE 192 672 144 672
WIRE 1216 672 1136 672
WIRE 688 800 432 800
WIRE 192 816 144 816
FLAG 144 384 5V
FLAG 144 464 0
FLAG 144 592 5V
FLAG 144 672 0
FLAG 144 816 0
FLAG 1216 384 5V
FLAG 1216 480 SDA
FLAG 1216 576 SCL
FLAG 1216 672 0
FLAG 1504 384 5V
FLAG 1504 464 0
FLAG 1504 544 SDA
FLAG 1504 608 SCL
TEXT 176 144 Left 3 ;Pong - Esquematico completo
TEXT 168 184 Left 1 ;Arduino UNO + OLED SSD1306 I2C + 2 potenciometros (raquetes) + buzzer
TEXT 840 264 Left 2 ;Arduino UNO
TEXT 704 416 Left 1 ;A0  (POT1 - Jogador 1)
TEXT 704 608 Left 1 ;A1  (POT2 - Jogador 2)
TEXT 704 800 Left 1 ;D8  (BUZZER)
TEXT 1128 376 Right 1 ;5V
TEXT 1128 472 Right 1 ;A4 (SDA)
TEXT 1128 568 Right 1 ;A5 (SCL)
TEXT 1128 664 Right 1 ;GND
TEXT 176 328 Left 2 ;Potenciometro P1 (raquete esquerda)
TEXT 200 376 Left 1 ;5V
TEXT 448 408 Left 1 ;Wiper -> A0
TEXT 200 456 Left 1 ;GND
TEXT 176 536 Left 2 ;Potenciometro P2 (raquete direita)
TEXT 200 584 Left 1 ;5V
TEXT 440 608 Left 1 ;Wiper -> A1
TEXT 200 664 Left 1 ;GND
TEXT 192 736 Left 2 ;Buzzer
TEXT 440 784 Left 1 ;+ (D8)
TEXT 200 808 Left 1 ;- (GND)
TEXT 1584 296 Left 2 ;Modulo OLED SSD1306
TEXT 1584 656 Left 1 ;128x64  I2C @ 0x3C
TEXT 1600 376 Left 1 ;VCC
TEXT 1600 456 Left 1 ;GND
TEXT 1600 536 Left 1 ;SDA
TEXT 1600 600 Left 1 ;SCL
TEXT 1312 696 Left 1 !Notas:
TEXT 1312 720 Left 1 !- Alimentacao 5V: vem do proprio Arduino (regulador/USB), pino 5V.
TEXT 1312 752 Left 1 !- GND comum a todos os modulos (net 0).
TEXT 1312 784 Left 1 !- I2C (SDA/SCL): resistores de pull-up ja inclusos no modulo OLED.
TEXT 1312 816 Left 1 !- Potenciometros: terminais externos em 5V/GND; o wiper (cursor) vai para a entrada analogica (A0/A1).
TEXT 1312 848 Left 1 !- Nets de mesmo nome (5V, 0, SDA, SCL) estao ligados por rotulo, nao por fio desenhado.
RECTANGLE Normal 688 304 1136 864
RECTANGLE Normal 192 352 432 496
RECTANGLE Normal 192 560 432 704
RECTANGLE Normal 192 752 432 848
RECTANGLE Normal 1584 336 1984 640
